Version 4
SHEET 1 880 680
WIRE 496 -768 400 -768
WIRE 400 -752 400 -768
WIRE 496 -752 496 -768
WIRE 496 -736 496 -752
WIRE 496 -640 496 -672
WIRE 496 -624 496 -640
WIRE 496 -544 496 -560
WIRE 544 -544 496 -544
WIRE 496 -528 496 -544
WIRE 448 -448 416 -448
WIRE 48 -400 -48 -400
WIRE 208 -400 128 -400
WIRE 336 -400 288 -400
WIRE 416 -400 416 -448
WIRE 416 -400 336 -400
WIRE -48 -384 -48 -400
WIRE 336 -384 336 -400
WIRE 336 -288 336 -304
WIRE 336 -288 144 -288
WIRE 496 -288 496 -432
WIRE 496 -288 336 -288
WIRE 144 -256 144 -288
FLAG 144 -256 0
FLAG -48 -384 0
FLAG 400 -752 0
FLAG 544 -544 Vd
IOPIN 544 -544 Out
SYMBOL res 320 -400 R0
SYMATTR InstName R1
SYMATTR Value 10k
SYMBOL res 304 -416 R90
WINDOW 0 0 56 VBottom 2
WINDOW 3 32 56 VTop 2
SYMATTR InstName R2
SYMATTR Value 100
SYMBOL voltage 144 -400 R90
WINDOW 0 -32 56 VBottom 2
WINDOW 3 32 56 VTop 2
WINDOW 123 0 0 Left 0
WINDOW 39 0 0 Left 0
SYMATTR InstName Vesp32
SYMATTR Value 0
SYMBOL nmos 448 -528 R0
SYMATTR InstName M1
SYMATTR Value Si7336ADP
SYMBOL res 480 -656 R0
SYMATTR InstName Heater
SYMATTR Value 25
SYMBOL voltage 496 -656 R180
WINDOW 0 24 96 Left 2
WINDOW 3 24 16 Left 2
WINDOW 123 0 0 Left 0
WINDOW 39 0 0 Left 0
SYMATTR InstName V2
SYMATTR Value 5
TEXT -44 -192 Left 2 !.tran 0 100ms 0
